CM 40-meter Groundplane with Sloping Radials, by K6STI
CE
GW	1	11	0	0	0	0	0	0.0755	8.1e-4
GW	6	11	0	0	0	0.05661	-0.03268	-0.03775	8.1e-4
GW	7	11	0	0	0	-0.05661	-0.03268	-0.03775	8.1e-4
GW	8	11	0	0	0	0	0.0654	-0.0378	8.1e-4
GE	0
EK
EX	0	1	1	0	1	0
GN	-1
FR	0	1	0	0	945	0
