CM 40-meter Groundplane with Sloping Radials, by K6STI
CE
GW	1	11	0	0	30	0	0	30.0755	8.1e-4
GW	6	11	0	0	30	0.05661	-0.03268	29.96225	8.1e-4
GW	7	11	0	0	30	-0.05661	-0.03268	29.96225	8.1e-4
GW	8	11	0	0	30	0	0.0654	29.9622	8.1e-4
GE	0
EK
EX	0	1	1	0	1	0
GN	2	0	0	0	13	0.005
FR	0	1	0	0	945	0
