CM 40-meter Groundplane with Sloping Radials, by K6STI
CE
GW	1	11	0	0	0	0	0	0.07903	8.1e-4
GW	6	11	0	0	0	0.05927	-0.03422	-0.03951	8.1e-4
GW	7	11	0	0	0	-0.05927	-0.03422	-0.03951	8.1e-4
GW	8	11	0	0	0	0	0.0684	-0.03951	8.1e-4
GE	0
EK
EX	0	1	1	0	1	0
GN	-1
FR	0	1	0	0	902.5	0
